<?xml version="1.0" encoding="UTF-8"?>
<routes>
	<vType id="carro" vClass="passenger" />
	<vType id="onibus" vClass="bus" />

	<flow id="CMSP" color="0,0,255" begin="0" end="1800" period="131" type="carro" departLane="best" from="morro-0" to="sp-0-s"/>
	<flow id="OMSP" color="0,0,255" begin="0" end="1800" period="2700" type="onibus" departLane="best" from="morro-0" to="sp-0-s"/>
	<flow id="CMUF" color="0,0,255" begin="0" end="1800" period="36" type="carro" departLane="best" from="morro-0" to="saida-uf"/>
	<flow id="OMUF" color="0,0,255" begin="0" end="1800" period="1800" type="onibus" departLane="best" from="morro-0" to="saida-uf"/>
	<flow id="CSPM" color="0,255,0" begin="0" end="1800" period="43" type="carro" departLane="best" from="sp-0" to="morro-4-s"/>
	<flow id="OSPM" color="0,255,0" begin="0" end="1800" period="600" type="onibus" departLane="best" from="sp-0" to="morro-4-s"/>
	<flow id="CSPUF" color="0,255,0" begin="0" end="1800" period="21" type="carro" departLane="best" from="sp-0" to="saida-uf"/>
	<flow id="OSPUF" color="0,255,0" begin="0" end="1800" period="900" type="onibus" departLane="best" from="sp-0" to="saida-uf"/>
	<flow id="CUFM" color="255,0,0" begin="0" end="1800" period="21" type="carro" departLane="best" from="uf-0" to="morro-4-s"/>
	<flow id="OUFM" color="255,0,0" begin="0" end="1800" period="2700" type="onibus" departLane="best" from="uf-0" to="morro-4-s"/>
	<flow id="CUFSP" color="255,0,0" begin="0" end="1800" period="27" type="carro" departLane="best" from="uf-0" to="sp-0-s"/>
	<flow id="OUFSP" color="255,0,0" begin="0" end="1800" period="1350" type="onibus" departLane="best" from="uf-0" to="sp-0-s"/>
</routes>